 

* CMOS INVERTER https://courseware.ee.calpoly.edu/~dbraun/courses/ee307/F02/02_Shelley/Section2_BasilShelley.htm
VDD 1 0 5
VIN 2 0
MQ1 1 2 3 1 PMOD1
MQ2 3 2 0 0 NMOD1
.DC VIN 0. 5. .01

* NMOS MODEL DEFINITION
.MODEL NMOD1 NMOS (L=3U W=6U KP=69U GAMMA=0.37
+LAMBDA=0.06 RD=1 RS=1 VTO=1.0 TOX=0.04U
+CBD=2F CBS=2F CJ=200U CGBO=200P CGSO=40P CGDO=40P)

* PMOS MODEL DEFINITION
.MODEL PMOD1 PMOS (L=3U W=6U KP=34.5U GAMMA=-0.37
+LAMBDA=0.06 RD=1 RS=1 VTO=-1.0 TOX=0.04U
+CBD=2F CBS=2F CJ=200U CGBO=200P CGSO=40P CGDO=40P)


.PRINT DC V(1) V(2) V(3)

.PROBE

.END
1
